<?xml version="1.0" encoding="UTF-8"?>

<!-- generated on 2024-03-11 16:57:00 by Eclipse SUMO netedit Version 1.16.0
<configuration xmlns:xsi="http://www.w3.org/2001/XMLSchema-instance" xsi:noNamespaceSchemaLocation="http://sumo.dlr.de/xsd/netconvertConfiguration.xsd">

    <input>
        <sumo-net-file value="E:\txw\sumo-rl\nets\syc\1x1\syc_4phases.net.xml"/>
    </input>

    <output>
        <output-file value="E:\txw\sumo-rl\nets\syc\1x1\syc_4phases.net.xml"/>
    </output>

    <processing>
        <geometry.min-radius.fix.railways value="false"/>
        <geometry.max-grade.fix value="false"/>
        <offset.disable-normalization value="true"/>
        <lefthand value="0"/>
    </processing>

    <junctions>
        <no-turnarounds value="true"/>
        <junctions.corner-detail value="5"/>
        <junctions.limit-turn-speed value="5.50"/>
        <rectangular-lane-cut value="0"/>
    </junctions>

    <pedestrian>
        <walkingareas value="0"/>
    </pedestrian>

</configuration>
-->

<net version="1.16" junctionCornerDetail="5" limitTurnSpeed="5.50" xmlns:xsi="http://www.w3.org/2001/XMLSchema-instance" xsi:noNamespaceSchemaLocation="http://sumo.dlr.de/xsd/net_file.xsd">

    <location netOffset="0.00,0.00" convBoundary="-200.00,-200.00,200.00,200.00" origBoundary="-10000000000.00,-10000000000.00,10000000000.00,10000000000.00" projParameter="!"/>

    <edge id=":t_0" function="internal">
        <lane id=":t_0_0" index="0" speed="6.51" length="9.03" shape="-8.00,13.60 -8.35,11.15 -9.40,9.40 -11.15,8.35 -13.60,8.00"/>
    </edge>
    <edge id=":t_1" function="internal">
        <lane id=":t_1_0" index="0" speed="13.89" length="27.20" shape="-4.80,13.60 -4.80,-13.60"/>
    </edge>
    <edge id=":t_2" function="internal">
        <lane id=":t_2_0" index="0" speed="10.36" length="24.51" shape="-1.60,13.60 -0.65,6.95 2.20,2.20 6.95,-0.65 13.60,-1.60"/>
    </edge>
    <edge id=":t_3" function="internal">
        <lane id=":t_3_0" index="0" speed="6.51" length="9.03" shape="13.60,8.00 11.15,8.35 9.40,9.40 8.35,11.15 8.00,13.60"/>
    </edge>
    <edge id=":t_4" function="internal">
        <lane id=":t_4_0" index="0" speed="13.89" length="27.20" shape="13.60,4.80 -13.60,4.80"/>
    </edge>
    <edge id=":t_5" function="internal">
        <lane id=":t_5_0" index="0" speed="10.36" length="24.51" shape="13.60,1.60 6.95,0.65 2.20,-2.20 -0.65,-6.95 -1.60,-13.60"/>
    </edge>
    <edge id=":t_6" function="internal">
        <lane id=":t_6_0" index="0" speed="6.51" length="9.03" shape="8.00,-13.60 8.35,-11.15 9.40,-9.40 11.15,-8.35 13.60,-8.00"/>
    </edge>
    <edge id=":t_7" function="internal">
        <lane id=":t_7_0" index="0" speed="13.89" length="27.20" shape="4.80,-13.60 4.80,13.60"/>
    </edge>
    <edge id=":t_8" function="internal">
        <lane id=":t_8_0" index="0" speed="10.36" length="24.51" shape="1.60,-13.60 0.65,-6.95 -2.20,-2.20 -6.95,0.65 -13.60,1.60"/>
    </edge>
    <edge id=":t_9" function="internal">
        <lane id=":t_9_0" index="0" speed="6.51" length="9.03" shape="-13.60,-8.00 -11.15,-8.35 -9.40,-9.40 -8.35,-11.15 -8.00,-13.60"/>
    </edge>
    <edge id=":t_10" function="internal">
        <lane id=":t_10_0" index="0" speed="13.89" length="27.20" shape="-13.60,-4.80 13.60,-4.80"/>
    </edge>
    <edge id=":t_11" function="internal">
        <lane id=":t_11_0" index="0" speed="10.36" length="24.51" shape="-13.60,-1.60 -6.95,-0.65 -2.20,2.20 0.65,6.95 1.60,13.60"/>
    </edge>

    <edge id="e_t" from="e" to="t" priority="-1">
        <lane id="e_t_0" index="0" speed="13.89" length="186.40" shape="200.00,8.00 13.60,8.00"/>
        <lane id="e_t_1" index="1" speed="13.89" length="186.40" shape="200.00,4.80 13.60,4.80"/>
        <lane id="e_t_2" index="2" speed="13.89" length="186.40" shape="200.00,1.60 13.60,1.60"/>
    </edge>
    <edge id="n_t" from="n" to="t" priority="-1">
        <lane id="n_t_0" index="0" speed="13.89" length="186.40" shape="-8.00,200.00 -8.00,13.60"/>
        <lane id="n_t_1" index="1" speed="13.89" length="186.40" shape="-4.80,200.00 -4.80,13.60"/>
        <lane id="n_t_2" index="2" speed="13.89" length="186.40" shape="-1.60,200.00 -1.60,13.60"/>
    </edge>
    <edge id="s_t" from="s" to="t" priority="-1">
        <lane id="s_t_0" index="0" speed="13.89" length="186.40" shape="8.00,-200.00 8.00,-13.60"/>
        <lane id="s_t_1" index="1" speed="13.89" length="186.40" shape="4.80,-200.00 4.80,-13.60"/>
        <lane id="s_t_2" index="2" speed="13.89" length="186.40" shape="1.60,-200.00 1.60,-13.60"/>
    </edge>
    <edge id="t_e" from="t" to="e" priority="-1">
        <lane id="t_e_0" index="0" speed="13.89" length="186.40" shape="13.60,-8.00 200.00,-8.00"/>
        <lane id="t_e_1" index="1" speed="13.89" length="186.40" shape="13.60,-4.80 200.00,-4.80"/>
        <lane id="t_e_2" index="2" speed="13.89" length="186.40" shape="13.60,-1.60 200.00,-1.60"/>
    </edge>
    <edge id="t_n" from="t" to="n" priority="-1">
        <lane id="t_n_0" index="0" speed="13.89" length="186.40" shape="8.00,13.60 8.00,200.00"/>
        <lane id="t_n_1" index="1" speed="13.89" length="186.40" shape="4.80,13.60 4.80,200.00"/>
        <lane id="t_n_2" index="2" speed="13.89" length="186.40" shape="1.60,13.60 1.60,200.00"/>
    </edge>
    <edge id="t_s" from="t" to="s" priority="-1">
        <lane id="t_s_0" index="0" speed="13.89" length="186.40" shape="-8.00,-13.60 -8.00,-200.00"/>
        <lane id="t_s_1" index="1" speed="13.89" length="186.40" shape="-4.80,-13.60 -4.80,-200.00"/>
        <lane id="t_s_2" index="2" speed="13.89" length="186.40" shape="-1.60,-13.60 -1.60,-200.00"/>
    </edge>
    <edge id="t_w" from="t" to="w" priority="-1">
        <lane id="t_w_0" index="0" speed="13.89" length="186.40" shape="-13.60,8.00 -200.00,8.00"/>
        <lane id="t_w_1" index="1" speed="13.89" length="186.40" shape="-13.60,4.80 -200.00,4.80"/>
        <lane id="t_w_2" index="2" speed="13.89" length="186.40" shape="-13.60,1.60 -200.00,1.60"/>
    </edge>
    <edge id="w_t" from="w" to="t" priority="-1">
        <lane id="w_t_0" index="0" speed="13.89" length="186.40" shape="-200.00,-8.00 -13.60,-8.00"/>
        <lane id="w_t_1" index="1" speed="13.89" length="186.40" shape="-200.00,-4.80 -13.60,-4.80"/>
        <lane id="w_t_2" index="2" speed="13.89" length="186.40" shape="-200.00,-1.60 -13.60,-1.60"/>
    </edge>

    <tlLogic id="t" type="actuated" programID="0" offset="0">
        <param key="max-gap" value="3.0"/>
        <param key="detector-gap" value="2.0"/>
        <param key="passing-time" value="2.0"/>
        <param key="vTypes" value=""/>
        <param key="show-detectors" value="false"/>
        <param key="file" value="NUL"/>
        <param key="freq" value="300"/>
        <param key="jam-threshold" value="-1"/>
        <param key="detector-length" value="0"/>
        <phase duration="33" minDur="10" maxDur="45" state="GrrGGrGrrGGr"/>
        <phase duration="3"  state="yrryyryrryyr"/>
        <phase duration="2"  state="rrrrrrrrrrrr"/>
        <phase duration="33" minDur="10" maxDur="45" state="GrrGrgGrrGrg"/>
        <phase duration="3"  state="yrryryyrryry"/>
        <phase duration="2"  state="rrrrrrrrrrrr"/>
        <phase duration="33" minDur="10" maxDur="45" state="GGrGrrGGrGrr"/>
        <phase duration="3"  state="yyryrryyryrr"/>
        <phase duration="2"  state="rrrrrrrrrrrr"/>
        <phase duration="33" minDur="10" maxDur="45" state="GrgGrrGrgGrr"/>
        <phase duration="3"  state="yryyrryryyrr"/>
        <phase duration="2"  state="rrrrrrrrrrrr"/>
    </tlLogic>

    <junction id="e" type="dead_end" x="200.00" y="0.00" incLanes="t_e_0 t_e_1 t_e_2" intLanes="" shape="200.00,0.00 200.00,-9.60 200.00,0.00"/>
    <junction id="n" type="dead_end" x="0.00" y="200.00" incLanes="t_n_0 t_n_1 t_n_2" intLanes="" shape="0.00,200.00 9.60,200.00 0.00,200.00"/>
    <junction id="s" type="dead_end" x="0.00" y="-200.00" incLanes="t_s_0 t_s_1 t_s_2" intLanes="" shape="0.00,-200.00 -9.60,-200.00 0.00,-200.00"/>
    <junction id="t" type="traffic_light" x="0.00" y="0.00" incLanes="n_t_0 n_t_1 n_t_2 e_t_0 e_t_1 e_t_2 s_t_0 s_t_1 s_t_2 w_t_0 w_t_1 w_t_2" intLanes=":t_0_0 :t_1_0 :t_2_0 :t_3_0 :t_4_0 :t_5_0 :t_6_0 :t_7_0 :t_8_0 :t_9_0 :t_10_0 :t_11_0" shape="-9.60,13.60 9.60,13.60 10.04,11.38 10.60,10.60 11.38,10.04 12.38,9.71 13.60,9.60 13.60,-9.60 11.38,-10.04 10.60,-10.60 10.04,-11.38 9.71,-12.38 9.60,-13.60 -9.60,-13.60 -10.04,-11.38 -10.60,-10.60 -11.38,-10.04 -12.38,-9.71 -13.60,-9.60 -13.60,9.60 -11.38,10.04 -10.60,10.60 -10.04,11.38 -9.71,12.38">
        <request index="0"  response="000000000000" foes="000000000000" cont="0"/>
        <request index="1"  response="000000000000" foes="110100010000" cont="0"/>
        <request index="2"  response="000010000000" foes="100010110000" cont="0"/>
        <request index="3"  response="000000000000" foes="000000000000" cont="0"/>
        <request index="4"  response="000010000110" foes="100010000110" cont="0"/>
        <request index="5"  response="010110000100" foes="010110000100" cont="0"/>
        <request index="6"  response="000000000000" foes="000000000000" cont="0"/>
        <request index="7"  response="000000000000" foes="010000110100" cont="0"/>
        <request index="8"  response="000000000010" foes="110000100010" cont="0"/>
        <request index="9"  response="000000000000" foes="000000000000" cont="0"/>
        <request index="10" response="000110000010" foes="000110100010" cont="0"/>
        <request index="11" response="000100010110" foes="000100010110" cont="0"/>
    </junction>
    <junction id="w" type="dead_end" x="-200.00" y="0.00" incLanes="t_w_0 t_w_1 t_w_2" intLanes="" shape="-200.00,0.00 -200.00,9.60 -200.00,0.00"/>

    <connection from="e_t" to="t_n" fromLane="0" toLane="0" via=":t_3_0" tl="t" linkIndex="3" dir="r" state="O"/>
    <connection from="e_t" to="t_w" fromLane="1" toLane="1" via=":t_4_0" tl="t" linkIndex="4" dir="s" state="o"/>
    <connection from="e_t" to="t_s" fromLane="2" toLane="2" via=":t_5_0" tl="t" linkIndex="5" dir="l" state="o"/>
    <connection from="n_t" to="t_w" fromLane="0" toLane="0" via=":t_0_0" tl="t" linkIndex="0" dir="r" state="O"/>
    <connection from="n_t" to="t_s" fromLane="1" toLane="1" via=":t_1_0" tl="t" linkIndex="1" dir="s" state="O"/>
    <connection from="n_t" to="t_e" fromLane="2" toLane="2" via=":t_2_0" tl="t" linkIndex="2" dir="l" state="o"/>
    <connection from="s_t" to="t_e" fromLane="0" toLane="0" via=":t_6_0" tl="t" linkIndex="6" dir="r" state="O"/>
    <connection from="s_t" to="t_n" fromLane="1" toLane="1" via=":t_7_0" tl="t" linkIndex="7" dir="s" state="O"/>
    <connection from="s_t" to="t_w" fromLane="2" toLane="2" via=":t_8_0" tl="t" linkIndex="8" dir="l" state="o"/>
    <connection from="w_t" to="t_s" fromLane="0" toLane="0" via=":t_9_0" tl="t" linkIndex="9" dir="r" state="O"/>
    <connection from="w_t" to="t_e" fromLane="1" toLane="1" via=":t_10_0" tl="t" linkIndex="10" dir="s" state="o"/>
    <connection from="w_t" to="t_n" fromLane="2" toLane="2" via=":t_11_0" tl="t" linkIndex="11" dir="l" state="o"/>

    <connection from=":t_0" to="t_w" fromLane="0" toLane="0" dir="r" state="M"/>
    <connection from=":t_1" to="t_s" fromLane="0" toLane="1" dir="s" state="M"/>
    <connection from=":t_2" to="t_e" fromLane="0" toLane="2" dir="l" state="M"/>
    <connection from=":t_3" to="t_n" fromLane="0" toLane="0" dir="r" state="M"/>
    <connection from=":t_4" to="t_w" fromLane="0" toLane="1" dir="s" state="M"/>
    <connection from=":t_5" to="t_s" fromLane="0" toLane="2" dir="l" state="M"/>
    <connection from=":t_6" to="t_e" fromLane="0" toLane="0" dir="r" state="M"/>
    <connection from=":t_7" to="t_n" fromLane="0" toLane="1" dir="s" state="M"/>
    <connection from=":t_8" to="t_w" fromLane="0" toLane="2" dir="l" state="M"/>
    <connection from=":t_9" to="t_s" fromLane="0" toLane="0" dir="r" state="M"/>
    <connection from=":t_10" to="t_e" fromLane="0" toLane="1" dir="s" state="M"/>
    <connection from=":t_11" to="t_n" fromLane="0" toLane="2" dir="l" state="M"/>

</net>
