<configuration>
    <input>
        <net-file value="syc_8phases.net.xml"/>
        <route-files value="syc.rou.xml"/>
        <additional-files value="1x1_outputs.add.xml"/>
    </input>
    <time>
        <begin value="0"/>
        <end value="1000"/>
    </time>
    <output>
		<tripinfo-output value="output_1x1/tripinfo.out.xml"/>
		<fcd-output value="output_1x1/fcd_output.xml"/>
		
		<!--<fcd-output.geo value="true"/>>-->
	</output>
</configuration>




