<routes><vType carFollowModel="Krauss" id="car" minGap="2.5" sigma="0.5" tau="1.0" /><trip arrivalLane="current" depart="0.0" departLane="best" departSpeed="max" from="n_t" id="trip_0" to="t_e" type="car" /><trip arrivalLane="current" depart="3.6" departLane="best" departSpeed="max" from="e_t" id="trip_1" to="t_s" type="car" /><trip arrivalLane="current" depart="7.2" departLane="best" departSpeed="max" from="s_t" id="trip_2" to="t_e" type="car" /><trip arrivalLane="current" depart="10.8" departLane="best" departSpeed="max" from="t_w" id="trip_3" to="n_t" type="car" /><trip arrivalLane="current" depart="14.4" departLane="best" departSpeed="max" from="t_n" id="trip_4" to="n_t" type="car" /><trip arrivalLane="current" depart="18.0" departLane="best" departSpeed="max" from="e_t" id="trip_5" to="w_t" type="car" /><trip arrivalLane="current" depart="21.6" departLane="best" departSpeed="max" from="t_s" id="trip_6" to="s_t" type="car" /><trip arrivalLane="current" depart="25.2" departLane="best" departSpeed="max" from="t_n" id="trip_7" to="t_e" type="car" /><trip arrivalLane="current" depart="28.8" departLane="best" departSpeed="max" from="t_s" id="trip_8" to="t_w" type="car" /><trip arrivalLane="current" depart="32.4" departLane="best" departSpeed="max" from="n_t" id="trip_9" to="e_t" type="car" /><trip arrivalLane="current" depart="36.0" departLane="best" departSpeed="max" from="n_t" id="trip_10" to="t_e" type="car" /><trip arrivalLane="current" depart="39.6" departLane="best" departSpeed="max" from="e_t" id="trip_11" to="w_t" type="car" /><trip arrivalLane="current" depart="43.2" departLane="best" departSpeed="max" from="w_t" id="trip_12" to="t_s" type="car" /><trip arrivalLane="current" depart="46.800000000000004" departLane="best" departSpeed="max" from="e_t" id="trip_13" to="t_w" type="car" /><trip arrivalLane="current" depart="50.4" departLane="best" departSpeed="max" from="t_s" id="trip_14" to="t_n" type="car" /><trip arrivalLane="current" depart="54.0" departLane="best" departSpeed="max" from="n_t" id="trip_15" to="e_t" type="car" /><trip arrivalLane="current" depart="57.6" departLane="best" departSpeed="max" from="w_t" id="trip_16" to="e_t" type="car" /><trip arrivalLane="current" depart="61.2" departLane="best" departSpeed="max" from="t_s" id="trip_17" to="n_t" type="car" /><trip arrivalLane="current" depart="64.8" departLane="best" departSpeed="max" from="t_w" id="trip_18" to="e_t" type="car" /><trip arrivalLane="current" depart="68.4" departLane="best" departSpeed="max" from="t_s" id="trip_19" to="s_t" type="car" /><trip arrivalLane="current" depart="72.0" departLane="best" departSpeed="max" from="w_t" id="trip_20" to="t_e" type="car" /><trip arrivalLane="current" depart="75.60000000000001" departLane="best" departSpeed="max" from="t_w" id="trip_21" to="n_t" type="car" /><trip arrivalLane="current" depart="79.2" departLane="best" departSpeed="max" from="t_w" id="trip_22" to="w_t" type="car" /><trip arrivalLane="current" depart="82.8" departLane="best" departSpeed="max" from="w_t" id="trip_23" to="t_e" type="car" /><trip arrivalLane="current" depart="86.4" departLane="best" departSpeed="max" from="t_n" id="trip_24" to="t_s" type="car" /><trip arrivalLane="current" depart="90.0" departLane="best" departSpeed="max" from="t_w" id="trip_25" to="w_t" type="car" /><trip arrivalLane="current" depart="93.60000000000001" departLane="best" departSpeed="max" from="t_n" id="trip_26" to="e_t" type="car" /><trip arrivalLane="current" depart="97.2" departLane="best" departSpeed="max" from="w_t" id="trip_27" to="t_s" type="car" /><trip arrivalLane="current" depart="100.8" departLane="best" departSpeed="max" from="s_t" id="trip_28" to="t_e" type="car" /><trip arrivalLane="current" depart="104.4" departLane="best" departSpeed="max" from="t_e" id="trip_29" to="t_s" type="car" /><trip arrivalLane="current" depart="108.0" departLane="best" departSpeed="max" from="t_w" id="trip_30" to="w_t" type="car" /><trip arrivalLane="current" depart="111.60000000000001" departLane="best" departSpeed="max" from="s_t" id="trip_31" to="t_n" type="car" /><trip arrivalLane="current" depart="115.2" departLane="best" departSpeed="max" from="t_e" id="trip_32" to="e_t" type="car" /><trip arrivalLane="current" depart="118.8" departLane="best" departSpeed="max" from="t_e" id="trip_33" to="n_t" type="car" /><trip arrivalLane="current" depart="122.4" departLane="best" departSpeed="max" from="w_t" id="trip_34" to="e_t" type="car" /><trip arrivalLane="current" depart="126.0" departLane="best" departSpeed="max" from="t_e" id="trip_35" to="t_s" type="car" /><trip arrivalLane="current" depart="129.6" departLane="best" departSpeed="max" from="t_e" id="trip_36" to="w_t" type="car" /><trip arrivalLane="current" depart="133.20000000000002" departLane="best" departSpeed="max" from="t_s" id="trip_37" to="e_t" type="car" /><trip arrivalLane="current" depart="136.8" departLane="best" departSpeed="max" from="t_n" id="trip_38" to="e_t" type="car" /><trip arrivalLane="current" depart="140.4" departLane="best" departSpeed="max" from="e_t" id="trip_39" to="t_s" type="car" /><trip arrivalLane="current" depart="144.0" departLane="best" departSpeed="max" from="t_s" id="trip_40" to="t_w" type="car" /><trip arrivalLane="current" depart="147.6" departLane="best" departSpeed="max" from="t_e" id="trip_41" to="t_w" type="car" /><trip arrivalLane="current" depart="151.20000000000002" departLane="best" departSpeed="max" from="t_w" id="trip_42" to="t_s" type="car" /><trip arrivalLane="current" depart="154.8" departLane="best" departSpeed="max" from="t_n" id="trip_43" to="w_t" type="car" /><trip arrivalLane="current" depart="158.4" departLane="best" departSpeed="max" from="e_t" id="trip_44" to="t_e" type="car" /><trip arrivalLane="current" depart="162.0" departLane="best" departSpeed="max" from="s_t" id="trip_45" to="t_w" type="car" /><trip arrivalLane="current" depart="165.6" departLane="best" departSpeed="max" from="w_t" id="trip_46" to="t_w" type="car" /><trip arrivalLane="current" depart="169.20000000000002" departLane="best" departSpeed="max" from="t_n" id="trip_47" to="n_t" type="car" /><trip arrivalLane="current" depart="172.8" departLane="best" departSpeed="max" from="w_t" id="trip_48" to="e_t" type="car" /><trip arrivalLane="current" depart="176.4" departLane="best" departSpeed="max" from="t_w" id="trip_49" to="e_t" type="car" /><trip arrivalLane="current" depart="180.0" departLane="best" departSpeed="max" from="t_e" id="trip_50" to="n_t" type="car" /><trip arrivalLane="current" depart="183.6" departLane="best" departSpeed="max" from="w_t" id="trip_51" to="n_t" type="car" /><trip arrivalLane="current" depart="187.20000000000002" departLane="best" departSpeed="max" from="t_n" id="trip_52" to="n_t" type="car" /><trip arrivalLane="current" depart="190.8" departLane="best" departSpeed="max" from="t_n" id="trip_53" to="e_t" type="car" /><trip arrivalLane="current" depart="194.4" departLane="best" departSpeed="max" from="e_t" id="trip_54" to="w_t" type="car" /><trip arrivalLane="current" depart="198.0" departLane="best" departSpeed="max" from="e_t" id="trip_55" to="t_s" type="car" /><trip arrivalLane="current" depart="201.6" departLane="best" departSpeed="max" from="n_t" id="trip_56" to="t_n" type="car" /><trip arrivalLane="current" depart="205.20000000000002" departLane="best" departSpeed="max" from="w_t" id="trip_57" to="s_t" type="car" /><trip arrivalLane="current" depart="208.8" departLane="best" departSpeed="max" from="t_w" id="trip_58" to="n_t" type="car" /><trip arrivalLane="current" depart="212.4" departLane="best" departSpeed="max" from="t_s" id="trip_59" to="e_t" type="car" /><trip arrivalLane="current" depart="216.0" departLane="best" departSpeed="max" from="t_e" id="trip_60" to="w_t" type="car" /><trip arrivalLane="current" depart="219.6" departLane="best" departSpeed="max" from="w_t" id="trip_61" to="e_t" type="car" /><trip arrivalLane="current" depart="223.20000000000002" departLane="best" departSpeed="max" from="n_t" id="trip_62" to="t_e" type="car" /><trip arrivalLane="current" depart="226.8" departLane="best" departSpeed="max" from="e_t" id="trip_63" to="t_n" type="car" /><trip arrivalLane="current" depart="230.4" departLane="best" departSpeed="max" from="t_n" id="trip_64" to="s_t" type="car" /><trip arrivalLane="current" depart="234.0" departLane="best" departSpeed="max" from="w_t" id="trip_65" to="t_w" type="car" /><trip arrivalLane="current" depart="237.6" departLane="best" departSpeed="max" from="e_t" id="trip_66" to="t_e" type="car" /><trip arrivalLane="current" depart="241.20000000000002" departLane="best" departSpeed="max" from="t_w" id="trip_67" to="s_t" type="car" /><trip arrivalLane="current" depart="244.8" departLane="best" departSpeed="max" from="n_t" id="trip_68" to="t_w" type="car" /><trip arrivalLane="current" depart="248.4" departLane="best" departSpeed="max" from="e_t" id="trip_69" to="t_e" type="car" /><trip arrivalLane="current" depart="252.0" departLane="best" departSpeed="max" from="t_e" id="trip_70" to="w_t" type="car" /><trip arrivalLane="current" depart="255.6" departLane="best" departSpeed="max" from="t_s" id="trip_71" to="w_t" type="car" /><trip arrivalLane="current" depart="259.2" departLane="best" departSpeed="max" from="t_s" id="trip_72" to="e_t" type="car" /><trip arrivalLane="current" depart="262.8" departLane="best" departSpeed="max" from="t_n" id="trip_73" to="n_t" type="car" /><trip arrivalLane="current" depart="266.40000000000003" departLane="best" departSpeed="max" from="t_s" id="trip_74" to="t_e" type="car" /><trip arrivalLane="current" depart="270.0" departLane="best" departSpeed="max" from="w_t" id="trip_75" to="t_w" type="car" /><trip arrivalLane="current" depart="273.6" departLane="best" departSpeed="max" from="t_n" id="trip_76" to="w_t" type="car" /><trip arrivalLane="current" depart="277.2" departLane="best" departSpeed="max" from="n_t" id="trip_77" to="t_e" type="car" /><trip arrivalLane="current" depart="280.8" departLane="best" departSpeed="max" from="e_t" id="trip_78" to="t_n" type="car" /><trip arrivalLane="current" depart="284.40000000000003" departLane="best" departSpeed="max" from="t_w" id="trip_79" to="t_s" type="car" /><trip arrivalLane="current" depart="288.0" departLane="best" departSpeed="max" from="t_w" id="trip_80" to="t_n" type="car" /><trip arrivalLane="current" depart="291.6" departLane="best" departSpeed="max" from="s_t" id="trip_81" to="w_t" type="car" /><trip arrivalLane="current" depart="295.2" departLane="best" departSpeed="max" from="w_t" id="trip_82" to="e_t" type="car" /><trip arrivalLane="current" depart="298.8" departLane="best" departSpeed="max" from="e_t" id="trip_83" to="s_t" type="car" /><trip arrivalLane="current" depart="302.40000000000003" departLane="best" departSpeed="max" from="n_t" id="trip_84" to="w_t" type="car" /><trip arrivalLane="current" depart="306.0" departLane="best" departSpeed="max" from="w_t" id="trip_85" to="t_e" type="car" /><trip arrivalLane="current" depart="309.6" departLane="best" departSpeed="max" from="e_t" id="trip_86" to="w_t" type="car" /><trip arrivalLane="current" depart="313.2" departLane="best" departSpeed="max" from="t_n" id="trip_87" to="e_t" type="car" /><trip arrivalLane="current" depart="316.8" departLane="best" departSpeed="max" from="n_t" id="trip_88" to="w_t" type="car" /><trip arrivalLane="current" depart="320.40000000000003" departLane="best" departSpeed="max" from="t_s" id="trip_89" to="n_t" type="car" /><trip arrivalLane="current" depart="324.0" departLane="best" departSpeed="max" from="e_t" id="trip_90" to="w_t" type="car" /><trip arrivalLane="current" depart="327.6" departLane="best" departSpeed="max" from="t_w" id="trip_91" to="w_t" type="car" /><trip arrivalLane="current" depart="331.2" departLane="best" departSpeed="max" from="w_t" id="trip_92" to="e_t" type="car" /><trip arrivalLane="current" depart="334.8" departLane="best" departSpeed="max" from="s_t" id="trip_93" to="n_t" type="car" /><trip arrivalLane="current" depart="338.40000000000003" departLane="best" departSpeed="max" from="t_e" id="trip_94" to="n_t" type="car" /><trip arrivalLane="current" depart="342.0" departLane="best" departSpeed="max" from="t_n" id="trip_95" to="t_w" type="car" /><trip arrivalLane="current" depart="345.6" departLane="best" departSpeed="max" from="t_e" id="trip_96" to="t_w" type="car" /><trip arrivalLane="current" depart="349.2" departLane="best" departSpeed="max" from="s_t" id="trip_97" to="w_t" type="car" /><trip arrivalLane="current" depart="352.8" departLane="best" departSpeed="max" from="n_t" id="trip_98" to="t_e" type="car" /><trip arrivalLane="current" depart="356.40000000000003" departLane="best" departSpeed="max" from="n_t" id="trip_99" to="s_t" type="car" /><trip arrivalLane="current" depart="360.0" departLane="best" departSpeed="max" from="t_n" id="trip_100" to="t_w" type="car" /><trip arrivalLane="current" depart="363.6" departLane="best" departSpeed="max" from="t_s" id="trip_101" to="t_w" type="car" /><trip arrivalLane="current" depart="367.2" departLane="best" departSpeed="max" from="t_w" id="trip_102" to="n_t" type="car" /><trip arrivalLane="current" depart="370.8" departLane="best" departSpeed="max" from="w_t" id="trip_103" to="t_n" type="car" /><trip arrivalLane="current" depart="374.40000000000003" departLane="best" departSpeed="max" from="n_t" id="trip_104" to="t_s" type="car" /><trip arrivalLane="current" depart="378.0" departLane="best" departSpeed="max" from="s_t" id="trip_105" to="w_t" type="car" /><trip arrivalLane="current" depart="381.6" departLane="best" departSpeed="max" from="t_e" id="trip_106" to="n_t" type="car" /><trip arrivalLane="current" depart="385.2" departLane="best" departSpeed="max" from="w_t" id="trip_107" to="s_t" type="car" /><trip arrivalLane="current" depart="388.8" departLane="best" departSpeed="max" from="t_n" id="trip_108" to="n_t" type="car" /><trip arrivalLane="current" depart="392.40000000000003" departLane="best" departSpeed="max" from="t_s" id="trip_109" to="t_n" type="car" /><trip arrivalLane="current" depart="396.0" departLane="best" departSpeed="max" from="e_t" id="trip_110" to="s_t" type="car" /><trip arrivalLane="current" depart="399.6" departLane="best" departSpeed="max" from="t_n" id="trip_111" to="t_w" type="car" /><trip arrivalLane="current" depart="403.2" departLane="best" departSpeed="max" from="t_n" id="trip_112" to="n_t" type="car" /><trip arrivalLane="current" depart="406.8" departLane="best" departSpeed="max" from="t_w" id="trip_113" to="n_t" type="car" /><trip arrivalLane="current" depart="410.40000000000003" departLane="best" departSpeed="max" from="e_t" id="trip_114" to="w_t" type="car" /><trip arrivalLane="current" depart="414.0" departLane="best" departSpeed="max" from="t_e" id="trip_115" to="e_t" type="car" /><trip arrivalLane="current" depart="417.6" departLane="best" departSpeed="max" from="s_t" id="trip_116" to="e_t" type="car" /><trip arrivalLane="current" depart="421.2" departLane="best" departSpeed="max" from="n_t" id="trip_117" to="t_e" type="car" /><trip arrivalLane="current" depart="424.8" departLane="best" departSpeed="max" from="t_w" id="trip_118" to="t_n" type="car" /><trip arrivalLane="current" depart="428.40000000000003" departLane="best" departSpeed="max" from="t_s" id="trip_119" to="e_t" type="car" /><trip arrivalLane="current" depart="432.0" departLane="best" departSpeed="max" from="n_t" id="trip_120" to="t_w" type="car" /><trip arrivalLane="current" depart="435.6" departLane="best" departSpeed="max" from="t_n" id="trip_121" to="t_w" type="car" /><trip arrivalLane="current" depart="439.2" departLane="best" departSpeed="max" from="t_s" id="trip_122" to="t_n" type="car" /><trip arrivalLane="current" depart="442.8" departLane="best" departSpeed="max" from="e_t" id="trip_123" to="s_t" type="car" /><trip arrivalLane="current" depart="446.40000000000003" departLane="best" departSpeed="max" from="w_t" id="trip_124" to="t_w" type="car" /><trip arrivalLane="current" depart="450.0" departLane="best" departSpeed="max" from="t_w" id="trip_125" to="e_t" type="car" /><trip arrivalLane="current" depart="453.6" departLane="best" departSpeed="max" from="s_t" id="trip_126" to="t_s" type="car" /><trip arrivalLane="current" depart="457.2" departLane="best" departSpeed="max" from="e_t" id="trip_127" to="t_n" type="car" /><trip arrivalLane="current" depart="460.8" departLane="best" departSpeed="max" from="t_w" id="trip_128" to="t_n" type="car" /><trip arrivalLane="current" depart="464.40000000000003" departLane="best" departSpeed="max" from="t_w" id="trip_129" to="s_t" type="car" /><trip arrivalLane="current" depart="468.0" departLane="best" departSpeed="max" from="t_w" id="trip_130" to="t_n" type="car" /><trip arrivalLane="current" depart="471.6" departLane="best" departSpeed="max" from="s_t" id="trip_131" to="t_w" type="car" /><trip arrivalLane="current" depart="475.2" departLane="best" departSpeed="max" from="t_w" id="trip_132" to="s_t" type="car" /><trip arrivalLane="current" depart="478.8" departLane="best" departSpeed="max" from="t_s" id="trip_133" to="t_w" type="car" /><trip arrivalLane="current" depart="482.40000000000003" departLane="best" departSpeed="max" from="t_s" id="trip_134" to="s_t" type="car" /><trip arrivalLane="current" depart="486.0" departLane="best" departSpeed="max" from="w_t" id="trip_135" to="t_s" type="car" /><trip arrivalLane="current" depart="489.6" departLane="best" departSpeed="max" from="s_t" id="trip_136" to="t_s" type="car" /><trip arrivalLane="current" depart="493.2" departLane="best" departSpeed="max" from="t_n" id="trip_137" to="t_s" type="car" /><trip arrivalLane="current" depart="496.8" departLane="best" departSpeed="max" from="t_e" id="trip_138" to="t_s" type="car" /><trip arrivalLane="current" depart="500.40000000000003" departLane="best" departSpeed="max" from="s_t" id="trip_139" to="t_e" type="car" /><trip arrivalLane="current" depart="504.0" departLane="best" departSpeed="max" from="t_n" id="trip_140" to="e_t" type="car" /><trip arrivalLane="current" depart="507.6" departLane="best" departSpeed="max" from="t_w" id="trip_141" to="t_n" type="car" /><trip arrivalLane="current" depart="511.2" departLane="best" departSpeed="max" from="s_t" id="trip_142" to="e_t" type="car" /><trip arrivalLane="current" depart="514.8000000000001" departLane="best" departSpeed="max" from="s_t" id="trip_143" to="n_t" type="car" /><trip arrivalLane="current" depart="518.4" departLane="best" departSpeed="max" from="e_t" id="trip_144" to="w_t" type="car" /><trip arrivalLane="current" depart="522.0" departLane="best" departSpeed="max" from="t_e" id="trip_145" to="t_n" type="car" /><trip arrivalLane="current" depart="525.6" departLane="best" departSpeed="max" from="t_w" id="trip_146" to="t_e" type="car" /><trip arrivalLane="current" depart="529.2" departLane="best" departSpeed="max" from="w_t" id="trip_147" to="s_t" type="car" /><trip arrivalLane="current" depart="532.8000000000001" departLane="best" departSpeed="max" from="s_t" id="trip_148" to="t_n" type="car" /><trip arrivalLane="current" depart="536.4" departLane="best" departSpeed="max" from="t_n" id="trip_149" to="t_e" type="car" /><trip arrivalLane="current" depart="540.0" departLane="best" departSpeed="max" from="t_n" id="trip_150" to="t_w" type="car" /><trip arrivalLane="current" depart="543.6" departLane="best" departSpeed="max" from="n_t" id="trip_151" to="s_t" type="car" /><trip arrivalLane="current" depart="547.2" departLane="best" departSpeed="max" from="t_w" id="trip_152" to="t_s" type="car" /><trip arrivalLane="current" depart="550.8000000000001" departLane="best" departSpeed="max" from="t_e" id="trip_153" to="e_t" type="car" /><trip arrivalLane="current" depart="554.4" departLane="best" departSpeed="max" from="w_t" id="trip_154" to="t_n" type="car" /><trip arrivalLane="current" depart="558.0" departLane="best" departSpeed="max" from="s_t" id="trip_155" to="t_s" type="car" /><trip arrivalLane="current" depart="561.6" departLane="best" departSpeed="max" from="w_t" id="trip_156" to="e_t" type="car" /><trip arrivalLane="current" depart="565.2" departLane="best" departSpeed="max" from="w_t" id="trip_157" to="t_n" type="car" /><trip arrivalLane="current" depart="568.8000000000001" departLane="best" departSpeed="max" from="t_w" id="trip_158" to="s_t" type="car" /><trip arrivalLane="current" depart="572.4" departLane="best" departSpeed="max" from="t_e" id="trip_159" to="t_n" type="car" /><trip arrivalLane="current" depart="576.0" departLane="best" departSpeed="max" from="e_t" id="trip_160" to="n_t" type="car" /><trip arrivalLane="current" depart="579.6" departLane="best" departSpeed="max" from="s_t" id="trip_161" to="t_n" type="car" /><trip arrivalLane="current" depart="583.2" departLane="best" departSpeed="max" from="t_s" id="trip_162" to="s_t" type="car" /><trip arrivalLane="current" depart="586.8000000000001" departLane="best" departSpeed="max" from="w_t" id="trip_163" to="t_s" type="car" /><trip arrivalLane="current" depart="590.4" departLane="best" departSpeed="max" from="t_s" id="trip_164" to="n_t" type="car" /><trip arrivalLane="current" depart="594.0" departLane="best" departSpeed="max" from="n_t" id="trip_165" to="t_n" type="car" /><trip arrivalLane="current" depart="597.6" departLane="best" departSpeed="max" from="s_t" id="trip_166" to="t_e" type="car" /><trip arrivalLane="current" depart="601.2" departLane="best" departSpeed="max" from="t_w" id="trip_167" to="e_t" type="car" /><trip arrivalLane="current" depart="604.8000000000001" departLane="best" departSpeed="max" from="t_n" id="trip_168" to="e_t" type="car" /><trip arrivalLane="current" depart="608.4" departLane="best" departSpeed="max" from="e_t" id="trip_169" to="t_e" type="car" /><trip arrivalLane="current" depart="612.0" departLane="best" departSpeed="max" from="w_t" id="trip_170" to="t_n" type="car" /><trip arrivalLane="current" depart="615.6" departLane="best" departSpeed="max" from="e_t" id="trip_171" to="s_t" type="car" /><trip arrivalLane="current" depart="619.2" departLane="best" departSpeed="max" from="t_w" id="trip_172" to="w_t" type="car" /><trip arrivalLane="current" depart="622.8000000000001" departLane="best" departSpeed="max" from="n_t" id="trip_173" to="t_e" type="car" /><trip arrivalLane="current" depart="626.4" departLane="best" departSpeed="max" from="t_e" id="trip_174" to="n_t" type="car" /><trip arrivalLane="current" depart="630.0" departLane="best" departSpeed="max" from="w_t" id="trip_175" to="t_s" type="car" /><trip arrivalLane="current" depart="633.6" departLane="best" departSpeed="max" from="t_e" id="trip_176" to="t_n" type="car" /><trip arrivalLane="current" depart="637.2" departLane="best" departSpeed="max" from="t_s" id="trip_177" to="t_w" type="car" /><trip arrivalLane="current" depart="640.8000000000001" departLane="best" departSpeed="max" from="w_t" id="trip_178" to="t_n" type="car" /><trip arrivalLane="current" depart="644.4" departLane="best" departSpeed="max" from="t_e" id="trip_179" to="t_s" type="car" /><trip arrivalLane="current" depart="648.0" departLane="best" departSpeed="max" from="s_t" id="trip_180" to="n_t" type="car" /><trip arrivalLane="current" depart="651.6" departLane="best" departSpeed="max" from="t_s" id="trip_181" to="t_w" type="car" /><trip arrivalLane="current" depart="655.2" departLane="best" departSpeed="max" from="t_e" id="trip_182" to="w_t" type="car" /><trip arrivalLane="current" depart="658.8000000000001" departLane="best" departSpeed="max" from="t_n" id="trip_183" to="e_t" type="car" /><trip arrivalLane="current" depart="662.4" departLane="best" departSpeed="max" from="e_t" id="trip_184" to="n_t" type="car" /><trip arrivalLane="current" depart="666.0" departLane="best" departSpeed="max" from="s_t" id="trip_185" to="w_t" type="car" /><trip arrivalLane="current" depart="669.6" departLane="best" departSpeed="max" from="w_t" id="trip_186" to="n_t" type="car" /><trip arrivalLane="current" depart="673.2" departLane="best" departSpeed="max" from="n_t" id="trip_187" to="e_t" type="car" /><trip arrivalLane="current" depart="676.8000000000001" departLane="best" departSpeed="max" from="t_w" id="trip_188" to="w_t" type="car" /><trip arrivalLane="current" depart="680.4" departLane="best" departSpeed="max" from="t_w" id="trip_189" to="w_t" type="car" /><trip arrivalLane="current" depart="684.0" departLane="best" departSpeed="max" from="t_e" id="trip_190" to="s_t" type="car" /><trip arrivalLane="current" depart="687.6" departLane="best" departSpeed="max" from="t_w" id="trip_191" to="s_t" type="car" /><trip arrivalLane="current" depart="691.2" departLane="best" departSpeed="max" from="t_n" id="trip_192" to="t_s" type="car" /><trip arrivalLane="current" depart="694.8000000000001" departLane="best" departSpeed="max" from="n_t" id="trip_193" to="t_s" type="car" /><trip arrivalLane="current" depart="698.4" departLane="best" departSpeed="max" from="s_t" id="trip_194" to="t_e" type="car" /><trip arrivalLane="current" depart="702.0" departLane="best" departSpeed="max" from="t_n" id="trip_195" to="e_t" type="car" /><trip arrivalLane="current" depart="705.6" departLane="best" departSpeed="max" from="e_t" id="trip_196" to="s_t" type="car" /><trip arrivalLane="current" depart="709.2" departLane="best" departSpeed="max" from="w_t" id="trip_197" to="t_s" type="car" /><trip arrivalLane="current" depart="712.8000000000001" departLane="best" departSpeed="max" from="w_t" id="trip_198" to="n_t" type="car" /><trip arrivalLane="current" depart="716.4" departLane="best" departSpeed="max" from="w_t" id="trip_199" to="t_s" type="car" /><trip arrivalLane="current" depart="720.0" departLane="best" departSpeed="max" from="w_t" id="trip_200" to="n_t" type="car" /><trip arrivalLane="current" depart="723.6" departLane="best" departSpeed="max" from="w_t" id="trip_201" to="t_e" type="car" /><trip arrivalLane="current" depart="727.2" departLane="best" departSpeed="max" from="t_w" id="trip_202" to="n_t" type="car" /><trip arrivalLane="current" depart="730.8000000000001" departLane="best" departSpeed="max" from="s_t" id="trip_203" to="t_w" type="car" /><trip arrivalLane="current" depart="734.4" departLane="best" departSpeed="max" from="s_t" id="trip_204" to="w_t" type="car" /><trip arrivalLane="current" depart="738.0" departLane="best" departSpeed="max" from="n_t" id="trip_205" to="t_w" type="car" /><trip arrivalLane="current" depart="741.6" departLane="best" departSpeed="max" from="t_e" id="trip_206" to="s_t" type="car" /><trip arrivalLane="current" depart="745.2" departLane="best" departSpeed="max" from="t_s" id="trip_207" to="e_t" type="car" /><trip arrivalLane="current" depart="748.8000000000001" departLane="best" departSpeed="max" from="t_n" id="trip_208" to="s_t" type="car" /><trip arrivalLane="current" depart="752.4" departLane="best" departSpeed="max" from="t_n" id="trip_209" to="e_t" type="car" /><trip arrivalLane="current" depart="756.0" departLane="best" departSpeed="max" from="t_s" id="trip_210" to="t_w" type="car" /><trip arrivalLane="current" depart="759.6" departLane="best" departSpeed="max" from="t_n" id="trip_211" to="t_e" type="car" /><trip arrivalLane="current" depart="763.2" departLane="best" departSpeed="max" from="t_n" id="trip_212" to="e_t" type="car" /><trip arrivalLane="current" depart="766.8000000000001" departLane="best" departSpeed="max" from="w_t" id="trip_213" to="t_e" type="car" /><trip arrivalLane="current" depart="770.4" departLane="best" departSpeed="max" from="t_e" id="trip_214" to="t_w" type="car" /><trip arrivalLane="current" depart="774.0" departLane="best" departSpeed="max" from="n_t" id="trip_215" to="s_t" type="car" /><trip arrivalLane="current" depart="777.6" departLane="best" departSpeed="max" from="n_t" id="trip_216" to="e_t" type="car" /><trip arrivalLane="current" depart="781.2" departLane="best" departSpeed="max" from="n_t" id="trip_217" to="e_t" type="car" /><trip arrivalLane="current" depart="784.8000000000001" departLane="best" departSpeed="max" from="e_t" id="trip_218" to="t_e" type="car" /><trip arrivalLane="current" depart="788.4" departLane="best" departSpeed="max" from="t_s" id="trip_219" to="t_n" type="car" /><trip arrivalLane="current" depart="792.0" departLane="best" departSpeed="max" from="w_t" id="trip_220" to="t_s" type="car" /><trip arrivalLane="current" depart="795.6" departLane="best" departSpeed="max" from="t_s" id="trip_221" to="t_e" type="car" /><trip arrivalLane="current" depart="799.2" departLane="best" departSpeed="max" from="w_t" id="trip_222" to="t_s" type="car" /><trip arrivalLane="current" depart="802.8000000000001" departLane="best" departSpeed="max" from="t_e" id="trip_223" to="t_s" type="car" /><trip arrivalLane="current" depart="806.4" departLane="best" departSpeed="max" from="t_n" id="trip_224" to="t_w" type="car" /><trip arrivalLane="current" depart="810.0" departLane="best" departSpeed="max" from="s_t" id="trip_225" to="t_e" type="car" /><trip arrivalLane="current" depart="813.6" departLane="best" departSpeed="max" from="n_t" id="trip_226" to="s_t" type="car" /><trip arrivalLane="current" depart="817.2" departLane="best" departSpeed="max" from="e_t" id="trip_227" to="w_t" type="car" /><trip arrivalLane="current" depart="820.8000000000001" departLane="best" departSpeed="max" from="t_s" id="trip_228" to="t_n" type="car" /><trip arrivalLane="current" depart="824.4" departLane="best" departSpeed="max" from="s_t" id="trip_229" to="t_n" type="car" /><trip arrivalLane="current" depart="828.0" departLane="best" departSpeed="max" from="n_t" id="trip_230" to="s_t" type="car" /><trip arrivalLane="current" depart="831.6" departLane="best" departSpeed="max" from="n_t" id="trip_231" to="t_s" type="car" /><trip arrivalLane="current" depart="835.2" departLane="best" departSpeed="max" from="t_e" id="trip_232" to="s_t" type="car" /><trip arrivalLane="current" depart="838.8000000000001" departLane="best" departSpeed="max" from="w_t" id="trip_233" to="t_s" type="car" /><trip arrivalLane=