<additional xmlns:xsi="http://www.w3.org/2001/XMLSchema-instance" xsi:noNamespaceSchemaLocation="http://sumo.dlr.de/xsd/additional_file.xsd">

	<edgeData id="1" file="output/edgedata.out.xml" begin="0" end="1000" freq="10"/>
	

</additional>