<configuration>
    <input>
        <net-file value="syc_4phases.net.xml"/>
        <route-files value="equal_entries_500_54_15-85-TC.rou.xml"/>
        <additional-files value="1x1_outputs.add.xml"/>
    </input>
    <time>
        <begin value="0"/>
        <end value="1000"/>
    </time>
    <output>
		<tripinfo-output value="output/tripinfo.out.xml"/>
		<fcd-output value="output/fcd_output.xml"/>
		
		<!--<fcd-output.geo value="true"/>>-->
	</output>
</configuration>




